
     RDKit          3D

 24 24  0  0  0  0  0  0  0  0999 V2000
    1.2828   -1.2515   -0.6811 C   0  0  0  0  0  0  0  0  0  0  0  0
    2.6734   -1.1173   -0.6760 C   0  0  0  0  0  0  0  0  0  0  0  0
    3.2804   -0.3209    0.2892 C   0  0  0  0  0  0  0  0  0  0  0  0
    2.5205    0.3421    1.2442 C   0  0  0  0  0  0  0  0  0  0  0  0
    1.1314    0.2071    1.2392 C   0  0  0  0  0  0  0  0  0  0  0  0
    0.4987   -0.5943    0.2792 C   0  0  0  0  0  0  0  0  0  0  0  0
   -1.0067   -0.7395    0.2651 C   0  0  0  0  0  0  0  0  0  0  0  0
   -1.7269    0.4356   -0.4206 C   0  0  0  0  0  0  0  0  0  0  0  0
   -3.1198   -0.0127   -0.8909 C   0  0  0  0  0  0  0  0  0  0  0  0
   -3.4095   -1.0809   -1.4056 O   0  0  0  0  0  0  0  0  0  0  0  0
   -4.0750    0.9324   -0.7271 O   0  0  0  0  0  0  0  0  0  0  0  0
   -1.8357    1.6138    0.4840 N   0  0  0  0  0  0  0  0  0  0  0  0
    4.6342   -0.1622    0.3304 O   0  0  0  0  0  0  0  0  0  0  0  0
    0.8144   -1.8754   -1.4393 H   0  0  0  0  0  0  0  0  0  0  0  0
    3.2592   -1.6373   -1.4269 H   0  0  0  0  0  0  0  0  0  0  0  0
    3.0057    0.9664    1.9887 H   0  0  0  0  0  0  0  0  0  0  0  0
    0.5441    0.7396    1.9841 H   0  0  0  0  0  0  0  0  0  0  0  0
   -1.2535   -1.6859   -0.2340 H   0  0  0  0  0  0  0  0  0  0  0  0
   -1.3683   -0.8687    1.2945 H   0  0  0  0  0  0  0  0  0  0  0  0
   -1.1861    0.7526   -1.3203 H   0  0  0  0  0  0  0  0  0  0  0  0
   -4.8827    0.5151   -1.0950 H   0  0  0  0  0  0  0  0  0  0  0  0
   -2.3793    1.3426    1.3038 H   0  0  0  0  0  0  0  0  0  0  0  0
   -2.4274    2.3009    0.0086 H   0  0  0  0  0  0  0  0  0  0  0  0
    5.0259   -0.6758   -0.3943 H   0  0  0  0  0  0  0  0  0  0  0  0
  1  2  2  0
  2  3  1  0
  3  4  2  0
  4  5  1  0
  5  6  2  0
  6  7  1  0
  7  8  1  0
  8  9  1  0
  9 10  2  0
  9 11  1  0
  8 12  1  0
  3 13  1  0
  6  1  1  0
  1 14  1  0
  2 15  1  0
  4 16  1  0
  5 17  1  0
  7 18  1  0
  7 19  1  0
  8 20  1  0
 11 21  1  0
 12 22  1  0
 12 23  1  0
 13 24  1  0
M  END
>  <_FF>  (1) 
mmff94s

>  <_FF_Energy_kcalmol>  (1) 
41.687413

>  <_FF_MaxIters>  (1) 
200

>  <_FF_Iters>  (1) 
0

>  <_FF_Converged>  (1) 
true

$$$$
